Version 4.1
SHEET 1 2536 808
WIRE 896 -208 896 -224
WIRE -48 -176 -96 -176
WIRE -16 -176 -48 -176
WIRE 128 -176 -16 -176
WIRE 224 -176 128 -176
WIRE 336 -144 16 -144
WIRE 448 -128 448 -144
WIRE 544 -128 544 -160
WIRE 544 -128 448 -128
WIRE -96 -112 -96 -176
WIRE 128 -112 128 -176
WIRE 224 -112 224 -176
WIRE 336 -112 336 -144
WIRE 448 -112 448 -128
WIRE 672 -96 592 -96
WIRE 784 -96 736 -96
WIRE 672 -80 672 -96
WIRE 736 -80 736 -96
WIRE 16 -48 16 -144
WIRE 48 -48 16 -48
WIRE 592 -48 592 -96
WIRE 592 -48 512 -48
WIRE 592 -32 592 -48
WIRE -96 -16 -96 -32
WIRE -16 48 -16 -176
WIRE 48 48 -16 48
WIRE 592 48 592 32
WIRE 592 48 512 48
WIRE 672 48 672 16
WIRE 672 48 592 48
WIRE 688 48 672 48
WIRE 736 48 736 16
WIRE 784 48 784 -96
WIRE 784 48 736 48
WIRE -64 240 -176 240
WIRE 48 240 16 240
WIRE 736 240 512 240
WIRE 736 256 736 240
WIRE 48 336 -560 336
WIRE 736 336 736 320
WIRE 736 336 512 336
WIRE 768 336 736 336
WIRE 832 336 768 336
WIRE 880 336 832 336
WIRE 1008 336 880 336
WIRE 1200 336 1120 336
WIRE 1360 336 1200 336
WIRE 1520 336 1360 336
WIRE 832 352 832 336
WIRE 1520 368 1520 336
WIRE 1360 384 1360 336
WIRE -48 432 -128 432
WIRE 48 432 -48 432
WIRE 736 432 736 336
WIRE 736 432 512 432
WIRE 768 432 768 336
WIRE 1008 432 1008 336
WIRE 1200 432 1200 416
WIRE -48 448 -48 432
WIRE -560 464 -560 416
WIRE -128 496 -128 432
WIRE -48 528 -48 512
WIRE 48 528 32 528
WIRE 160 624 160 592
WIRE 288 640 288 592
WIRE 416 640 416 592
WIRE 416 640 288 640
WIRE -128 656 -128 560
WIRE -48 656 -48 608
WIRE -48 656 -128 656
WIRE 288 672 288 640
WIRE -176 800 -176 240
WIRE -48 800 -48 656
WIRE -48 800 -176 800
WIRE 288 800 288 752
WIRE 288 800 -48 800
WIRE 736 800 736 432
WIRE 736 800 288 800
FLAG -96 -16 0
FLAG 160 624 0
FLAG 688 48 0
FLAG -48 -176 IN
FLAG 880 336 OUT
FLAG 832 416 0
FLAG 1008 512 0
FLAG -560 464 0
FLAG 896 -304 0
FLAG 448 -224 0
FLAG 544 -224 OUT
FLAG 784 -96 OUT
FLAG 768 576 0
FLAG 1520 448 0
FLAG 1200 496 0
FLAG 1360 448 0
FLAG 1520 336 ldo
SYMBOL voltage -96 -128 R0
WINDOW 123 0 0 Left 2
WINDOW 39 0 0 Left 2
SYMATTR InstName V1
SYMATTR Value 12
SYMBOL res 272 656 R0
SYMATTR InstName R1
SYMATTR Value 120k
SYMBOL res 32 224 R90
WINDOW 0 0 56 VBottom 2
WINDOW 3 32 56 VTop 2
SYMATTR InstName R2
SYMATTR Value 62.5k
SYMBOL cap 720 256 R0
SYMATTR InstName C2
SYMATTR Value 4.7µ
SYMBOL LTM4651 288 240 R0
SYMATTR InstName U1
SYMBOL res 992 416 R0
SYMATTR InstName R3
SYMATTR Value '6/3'
SYMBOL voltage -560 320 R0
WINDOW 123 0 0 Left 0
WINDOW 39 0 0 Left 0
SYMATTR InstName V2
SYMATTR Value PULSE(0 3.3 0 1e-9 1e-9 0.25e-6 0.5e-6)
SYMBOL current 896 -304 R0
WINDOW 123 0 0 Left 0
WINDOW 39 0 0 Left 0
SYMATTR InstName I2
SYMATTR Value PWL(0 0.01 1m 0.01 1.00001m 0.5)
SYMBOL cap -64 448 R0
SYMATTR InstName C3
SYMATTR Value 33n
SYMBOL res -64 512 R0
SYMATTR InstName R4
SYMATTR Value 4.75k
SYMBOL res 432 -240 R0
SYMATTR InstName R5
SYMATTR Value 24.9
SYMBOL cap 528 -224 R0
SYMATTR InstName C5
SYMATTR Value 1µ
SYMBOL cap 816 352 R0
WINDOW 3 56 46 Left 2
WINDOW 123 56 72 Left 2
WINDOW 0 57 22 Left 2
SYMATTR Value 39.1µ
SYMATTR Value2 x4
SYMATTR InstName Coc1
SYMATTR SpiceLine Rser=2.17m Lser=0.2n
SYMBOL fra 592 -32 R180
SYMATTR InstName @1
SYMATTR SpiceLine delay=1.5m fstart=937.5 fend=240K oct=2 fcoarse=7.5K pp0=192m pp1=12m f0=937.5 f1=15K tavgmin=50µ tsettle=66.6667µ
SYMBOL fraprobe 752 -32 M90
SYMATTR InstName &1
SYMBOL cap 752 512 R0
SYMATTR InstName C1
SYMATTR Value 22µ
SYMATTR SpiceLine Rser=40m Lser=1.7n
SYMBOL res 752 416 R0
SYMATTR InstName R6
SYMATTR Value 0.5
SYMBOL cap -144 496 R0
SYMATTR InstName C4
SYMATTR Value 10p
SYMBOL res 1504 352 R0
SYMATTR InstName R7
SYMATTR Value '6/3'
SYMBOL cap 1184 432 R0
SYMATTR InstName C6
SYMATTR Value 100µ
SYMATTR SpiceLine Rser=80m Lser=3n
SYMBOL res 1184 320 R0
SYMATTR InstName R8
SYMATTR Value 0.3
SYMBOL Coilcraft\\Power_Inductors\\XGL4020 1040 336 R0
SYMATTR SpiceModel XGL4020-102_sat
SYMATTR InstName U2
SYMBOL cap 1344 384 R0
SYMATTR InstName C7
SYMATTR Value 12.608µ
SYMATTR SpiceLine Rser=2.172m Lser=0.2n
TEXT 800 696 Left 2 ;.tran 2.2m startup
TEXT 800 728 Left 2 !.fra startup
